This is a new test file from terminal :)

New line...